# generated using pymatgen
data_Y3Al5O12
_symmetry_space_group_name_H-M   'P 1'
_cell_length_a   9.73223249
_cell_length_b   9.73223249
_cell_length_c   9.73223249
_cell_angle_alpha   90.00000000
_cell_angle_beta   90.00000000
_cell_angle_gamma   90.00000000
_symmetry_Int_Tables_number   1
_chemical_formula_structural   Y3Al5O12
_chemical_formula_sum   'Y12 Al20 O48'
_cell_volume   921.80153252
_cell_formula_units_Z   4
loop_
 _symmetry_equiv_pos_site_id
 _symmetry_equiv_pos_as_xyz
  1  'x, y, z'
loop_
 _atom_site_type_symbol
 _atom_site_label
 _atom_site_symmetry_multiplicity
 _atom_site_fract_x
 _atom_site_fract_y
 _atom_site_fract_z
 _atom_site_occupancy
  Al  Al0  1  0.25000000  0.25000000  0.25000000  1
  Al  Al1  1  0.75000000  0.75000000  0.75000000  1
  Al  Al2  1  0.25000000  0.75000000  0.75000000  1
  Al  Al3  1  0.75000000  0.25000000  0.75000000  1
  Al  Al4  1  0.75000000  0.75000000  0.25000000  1
  Al  Al5  1  0.25000000  0.75000000  0.25000000  1
  Al  Al6  1  0.75000000  0.25000000  0.25000000  1
  Al  Al7  1  0.25000000  0.25000000  0.75000000  1
  Al  Al8  1  0.50000000  0.25000000  0.75000000  1
  Al  Al9  1  0.00000000  0.25000000  0.75000000  1
  Al  Al10  1  0.75000000  0.50000000  0.25000000  1
  Al  Al11  1  0.75000000  0.00000000  0.25000000  1
  Al  Al12  1  0.25000000  0.75000000  0.50000000  1
  Al  Al13  1  0.25000000  0.75000000  0.00000000  1
  Al  Al14  1  0.50000000  0.75000000  0.25000000  1
  Al  Al15  1  0.00000000  0.75000000  0.25000000  1
  Al  Al16  1  0.25000000  0.50000000  0.75000000  1
  Al  Al17  1  0.25000000  0.00000000  0.75000000  1
  Al  Al18  1  0.75000000  0.25000000  0.50000000  1
  Al  Al19  1  0.75000000  0.25000000  0.00000000  1
  O  O20  1  0.00000000  0.00000000  0.00000000  1
  O  O21  1  0.50000000  0.50000000  0.00000000  1
  O  O22  1  0.50000000  0.00000000  0.50000000  1
  O  O23  1  0.00000000  0.50000000  0.50000000  1
  O  O24  1  0.38866475  0.38866475  0.38866475  1
  O  O25  1  0.11133525  0.11133525  0.38866475  1
  O  O26  1  0.11133525  0.38866475  0.11133525  1
  O  O27  1  0.38866475  0.11133525  0.11133525  1
  O  O28  1  0.88866475  0.88866475  -0.38866475  1
  O  O29  1  -0.38866475  -0.38866475  -0.38866475  1
  O  O30  1  0.88866475  -0.38866475  0.88866475  1
  O  O31  1  -0.38866475  0.88866475  0.88866475  1
  O  O32  1  0.08281464  0.25000000  0.25000000  1
  O  O33  1  0.41718536  0.25000000  0.25000000  1
  O  O34  1  0.25000000  0.08281464  0.25000000  1
  O  O35  1  0.25000000  0.41718536  0.25000000  1
  O  O36  1  0.25000000  0.25000000  0.08281464  1
  O  O37  1  0.25000000  0.25000000  0.41718536  1
  O  O38  1  0.75000000  0.58281464  0.75000000  1
  O  O39  1  0.75000000  -0.08281464  0.75000000  1
  O  O40  1  0.58281464  0.75000000  0.75000000  1
  O  O41  1  -0.08281464  0.75000000  0.75000000  1
  O  O42  1  0.75000000  0.75000000  -0.08281464  1
  O  O43  1  0.75000000  0.75000000  0.58281464  1
  O  O44  1  0.50000000  0.04390018  0.54390018  1
  O  O45  1  0.00000000  0.45609982  0.54390018  1
  O  O46  1  0.00000000  0.04390018  -0.04390018  1
  O  O47  1  0.50000000  0.45609982  -0.04390018  1
  O  O48  1  0.54390018  0.50000000  0.04390018  1
  O  O49  1  0.54390018  0.00000000  0.45609982  1
  O  O50  1  -0.04390018  0.00000000  0.04390018  1
  O  O51  1  -0.04390018  0.50000000  0.45609982  1
  O  O52  1  0.04390018  0.54390018  0.50000000  1
  O  O53  1  0.45609982  0.54390018  0.00000000  1
  O  O54  1  0.04390018  -0.04390018  0.00000000  1
  O  O55  1  0.45609982  -0.04390018  0.50000000  1
  O  O56  1  0.50000000  -0.04390018  0.45609982  1
  O  O57  1  0.00000000  0.54390018  0.45609982  1
  O  O58  1  0.00000000  -0.04390018  0.04390018  1
  O  O59  1  0.50000000  0.54390018  0.04390018  1
  O  O60  1  0.45609982  0.50000000  -0.04390018  1
  O  O61  1  0.45609982  0.00000000  0.54390018  1
  O  O62  1  0.04390018  0.00000000  -0.04390018  1
  O  O63  1  0.04390018  0.50000000  0.54390018  1
  O  O64  1  -0.04390018  0.45609982  0.50000000  1
  O  O65  1  0.54390018  0.45609982  0.00000000  1
  O  O66  1  -0.04390018  0.04390018  0.00000000  1
  O  O67  1  0.54390018  0.04390018  0.50000000  1
  Y  Y68  1  0.50000000  0.50000000  0.50000000  1
  Y  Y69  1  0.00000000  0.00000000  0.50000000  1
  Y  Y70  1  0.00000000  0.50000000  0.00000000  1
  Y  Y71  1  0.50000000  0.00000000  0.00000000  1
  Y  Y72  1  0.88953834  0.88953834  0.88953834  1
  Y  Y73  1  -0.38953834  -0.38953834  0.88953834  1
  Y  Y74  1  -0.38953834  0.88953834  -0.38953834  1
  Y  Y75  1  0.88953834  -0.38953834  -0.38953834  1
  Y  Y76  1  1.38953834  1.38953834  -0.88953834  1
  Y  Y77  1  -0.88953834  -0.88953834  -0.88953834  1
  Y  Y78  1  1.38953834  -0.88953834  1.38953834  1
  Y  Y79  1  -0.88953834  1.38953834  1.38953834  1