# generated using pymatgen
data_Ag8SnS6
_symmetry_space_group_name_H-M   Pna2_1
_cell_length_a   15.48728700
_cell_length_b   7.70814600
_cell_length_c   10.88417700
_cell_angle_alpha   90.00000000
_cell_angle_beta   90.00000000
_cell_angle_gamma   90.00000000
_symmetry_Int_Tables_number   33
_chemical_formula_structural   Ag8SnS6
_chemical_formula_sum   'Ag32 Sn4 S24'
_cell_volume   1299.33421345
_cell_formula_units_Z   4
loop_
 _symmetry_equiv_pos_site_id
 _symmetry_equiv_pos_as_xyz
  1  'x, y, z'
  2  '-x, -y, z+1/2'
  3  '-x+1/2, y+1/2, z+1/2'
  4  'x+1/2, -y+1/2, z'
loop_
 _atom_site_type_symbol
 _atom_site_label
 _atom_site_symmetry_multiplicity
 _atom_site_fract_x
 _atom_site_fract_y
 _atom_site_fract_z
 _atom_site_occupancy
  Ag  Ag0  4  0.02048700  0.01986100  0.61254200  1
  Ag  Ag1  4  0.06083200  0.23488200  0.83248900  1
  Ag  Ag2  4  0.06488000  0.56635300  0.51800000  1
  Ag  Ag3  4  0.09041000  0.60378700  0.19345500  1
  Ag  Ag4  4  0.12885600  0.27155800  0.37318400  1
  Ag  Ag5  4  0.22663600  0.87653100  0.19000200  1
  Ag  Ag6  4  0.22745200  0.00963600  0.59861200  1
  Ag  Ag7  4  0.23966200  0.63805400  0.41389800  1
  Sn  Sn8  4  0.12496600  0.73461000  0.84865700  1
  S  S9  4  0.00098400  0.26821800  0.21784900  1
  S  S10  4  0.11173200  0.80914300  0.36478000  1
  S  S11  4  0.12069500  0.48372400  0.98208000  1
  S  S12  4  0.12487600  0.26838900  0.60561200  1
  S  S13  4  0.12675300  0.98980800  0.97946200  1
  S  S14  4  0.24902300  0.22452700  0.21927800  1
