# generated using pymatgen
data_Li8TiS6
_symmetry_space_group_name_H-M   Pna2_1
_cell_length_a   14.70064600
_cell_length_b   7.10013000
_cell_length_c   10.26034200
_cell_angle_alpha   90.00000000
_cell_angle_beta   90.00000000
_cell_angle_gamma   90.00000000
_symmetry_Int_Tables_number   33
_chemical_formula_structural   Li8TiS6
_chemical_formula_sum   'Li32 Ti4 S24'
_cell_volume   1070.93856300
_cell_formula_units_Z   4
loop_
 _symmetry_equiv_pos_site_id
 _symmetry_equiv_pos_as_xyz
  1  'x, y, z'
  2  '-x, -y, z+1/2'
  3  '-x+1/2, y+1/2, z+1/2'
  4  'x+1/2, -y+1/2, z'
loop_
 _atom_site_type_symbol
 _atom_site_label
 _atom_site_symmetry_multiplicity
 _atom_site_fract_x
 _atom_site_fract_y
 _atom_site_fract_z
 _atom_site_occupancy
  Li  Li0  4  0.01989200  0.51147000  0.78107700  1
  Li  Li1  4  0.05944500  0.27945100  0.52935600  1
  Li  Li2  4  0.06715800  0.89866300  0.19259700  1
  Li  Li3  4  0.07554700  0.93392400  0.83204700  1
  Li  Li4  4  0.11526400  0.33876600  0.00057200  1
  Li  Li5  4  0.21499100  0.54263600  0.82142600  1
  Li  Li6  4  0.23089200  0.58317100  0.18598400  1
  Li  Li7  4  0.24371200  0.93594200  0.00795300  1
  Ti  Ti8  4  0.12443500  0.77183200  0.51296400  1
  S  S9  4  0.00083100  0.78214800  0.64415000  1
  S  S10  4  0.11892600  0.70965800  0.00405400  1
  S  S11  4  0.12281900  0.25239300  0.75974700  1
  S  S12  4  0.12576200  0.51881400  0.37758800  1
  S  S13  4  0.12658800  0.03349900  0.39271600  1
  S  S14  4  0.24668800  0.23898800  0.13245300  1
