# generated using pymatgen
data_Na8TiO6
_symmetry_space_group_name_H-M   Pna2_1
_cell_length_a   13.93894300
_cell_length_b   6.63070000
_cell_length_c   9.59246300
_cell_angle_alpha   90.00000000
_cell_angle_beta   90.00000000
_cell_angle_gamma   90.00000000
_symmetry_Int_Tables_number   33
_chemical_formula_structural   Na8TiO6
_chemical_formula_sum   'Na32 Ti4 O24'
_cell_volume   886.58290692
_cell_formula_units_Z   4
loop_
 _symmetry_equiv_pos_site_id
 _symmetry_equiv_pos_as_xyz
  1  'x, y, z'
  2  '-x, -y, z+1/2'
  3  '-x+1/2, y+1/2, z+1/2'
  4  'x+1/2, -y+1/2, z'
loop_
 _atom_site_type_symbol
 _atom_site_label
 _atom_site_symmetry_multiplicity
 _atom_site_fract_x
 _atom_site_fract_y
 _atom_site_fract_z
 _atom_site_occupancy
  Na  Na0  4  0.01255400  0.51204400  0.77383800  1
  Na  Na1  4  0.06295000  0.27294700  0.52469000  1
  Na  Na2  4  0.07117600  0.91775500  0.18962900  1
  Na  Na3  4  0.07731900  0.94008900  0.83053300  1
  Na  Na4  4  0.11542400  0.33664900  0.01142700  1
  Na  Na5  4  0.21983200  0.55046500  0.81779100  1
  Na  Na6  4  0.22906400  0.57900300  0.19855800  1
  Na  Na7  4  0.24972500  0.92107500  0.00743300  1
  Ti  Ti8  4  0.12354800  0.78076400  0.51236500  1
  O  O9  4  0.01681600  0.78964300  0.62781900  1
  O  O10  4  0.11836900  0.70913200  0.00546900  1
  O  O11  4  0.12080700  0.55820100  0.39665600  1
  O  O12  4  0.12615400  0.00781700  0.40343900  1
  O  O13  4  0.12615500  0.25756100  0.75836700  1
  O  O14  4  0.23445600  0.74983600  0.61668600  1
