# generated using pymatgen
data_Si(Ag4S3)2
_symmetry_space_group_name_H-M   Pna2_1
_cell_length_a   15.21322300
_cell_length_b   7.58999400
_cell_length_c   10.69029700
_cell_angle_alpha   90.00000000
_cell_angle_beta   90.00000000
_cell_angle_gamma   90.00000000
_symmetry_Int_Tables_number   33
_chemical_formula_structural   Si(Ag4S3)2
_chemical_formula_sum   'Si4 Ag32 S24'
_cell_volume   1234.39011417
_cell_formula_units_Z   4
loop_
 _symmetry_equiv_pos_site_id
 _symmetry_equiv_pos_as_xyz
  1  'x, y, z'
  2  '-x, -y, z+1/2'
  3  '-x+1/2, y+1/2, z+1/2'
  4  'x+1/2, -y+1/2, z'
loop_
 _atom_site_type_symbol
 _atom_site_label
 _atom_site_symmetry_multiplicity
 _atom_site_fract_x
 _atom_site_fract_y
 _atom_site_fract_z
 _atom_site_occupancy
  Si  Si0  4  0.12336100  0.76304500  0.53192400  1
  Ag  Ag1  4  0.01486600  0.48358100  0.77002200  1
  Ag  Ag2  4  0.06404800  0.26374400  0.54557600  1
  Ag  Ag3  4  0.06650400  0.93095100  0.85942200  1
  Ag  Ag4  4  0.08788700  0.87917700  0.19532200  1
  Ag  Ag5  4  0.12926000  0.22773000  0.01421900  1
  Ag  Ag6  4  0.22857700  0.49448200  0.78969100  1
  Ag  Ag7  4  0.23190500  0.61565500  0.18793200  1
  Ag  Ag8  4  0.23933300  0.87662400  0.97934600  1
  S  S9  4  0.00901000  0.76854700  0.64981300  1
  S  S10  4  0.11280300  0.68358500  0.01299500  1
  S  S11  4  0.12076300  0.99211500  0.41203000  1
  S  S12  4  0.12283600  0.23335300  0.77710200  1
  S  S13  4  0.12620500  0.53280000  0.41269800  1
  S  S14  4  0.23730300  0.77051000  0.65010700  1
