# generated using pymatgen
data_Ag8GeS6
_symmetry_space_group_name_H-M   Pna2_1
_cell_length_a   15.31324500
_cell_length_b   7.62616100
_cell_length_c   10.74315500
_cell_angle_alpha   90.00000000
_cell_angle_beta   90.00000000
_cell_angle_gamma   90.00000000
_symmetry_Int_Tables_number   33
_chemical_formula_structural   Ag8GeS6
_chemical_formula_sum   'Ag32 Ge4 S24'
_cell_volume   1254.59930407
_cell_formula_units_Z   4
loop_
 _symmetry_equiv_pos_site_id
 _symmetry_equiv_pos_as_xyz
  1  'x, y, z'
  2  '-x, -y, z+1/2'
  3  '-x+1/2, y+1/2, z+1/2'
  4  'x+1/2, -y+1/2, z'
loop_
 _atom_site_type_symbol
 _atom_site_label
 _atom_site_symmetry_multiplicity
 _atom_site_fract_x
 _atom_site_fract_y
 _atom_site_fract_z
 _atom_site_occupancy
  Ag  Ag0  4  0.01649000  0.01654000  0.61181900  1
  Ag  Ag1  4  0.06311900  0.23383900  0.83558100  1
  Ag  Ag2  4  0.06641100  0.56653900  0.52205200  1
  Ag  Ag3  4  0.08763700  0.61087000  0.19042900  1
  Ag  Ag4  4  0.12949300  0.27054800  0.36987600  1
  Ag  Ag5  4  0.22840700  0.00505500  0.59501700  1
  Ag  Ag6  4  0.22896700  0.87913000  0.19116900  1
  Ag  Ag7  4  0.23936800  0.62634600  0.40563800  1
  Ge  Ge8  4  0.12383000  0.73380200  0.85039400  1
  S  S9  4  0.00520300  0.73074800  0.72780000  1
  S  S10  4  0.11223600  0.81268700  0.36785700  1
  S  S11  4  0.12076600  0.49689300  0.97509400  1
  S  S12  4  0.12374800  0.26544900  0.60563300  1
  S  S13  4  0.12684900  0.97362100  0.97378000  1
  S  S14  4  0.24188800  0.72562200  0.72776200  1
